26
MOLECULE
P   1.630298  -0.257098  -2.973429
C   3.035457  -0.901473  -1.970672
H   3.893986  -0.280467  -2.248057
H   2.878559  -0.748520  -0.899228
C   3.331072  -2.363132  -2.273820
H   3.531075  -2.508412  -3.337613
H   2.486106  -3.003531  -2.010860
H   4.201635  -2.713683  -1.714355
C   0.162377  -0.958519  -2.135155
C  -1.057815  -0.826475  -2.799193
C   0.173744  -1.605857  -0.902010
C  -2.232770  -1.300097  -2.238916
C  -0.998126  -2.097805  -0.345718
C  -2.205372  -1.941598  -1.008936
H  -1.080501  -0.349856  -3.774529
H   1.103487  -1.729846  -0.359664
H  -3.170483  -1.180465  -2.769570
H  -0.967020  -2.602031   0.613654
H  -3.120652  -2.324561  -0.572729
C   1.532622   1.500358  -2.388019
H   2.403450   2.004145  -2.821532
H   0.660663   1.924244  -2.895668
C   1.448743   1.751494  -0.893059
H   2.347185   1.410672  -0.374642
H   0.592860   1.234833  -0.453719
H   1.337693   2.818969  -0.684644
