26
C10PH15
P        1.586357512      0.000000057     -2.874914236
C        2.941764958     -0.782545460     -2.211217642
H        3.845047089     -0.466903262     -2.746907439
H        3.072500226     -0.466903262     -1.169204947
C        2.833316538     -2.316789992     -2.264321118
H        2.733209127     -2.666994685     -3.296714368
H        1.956414055     -2.666994685     -1.710336144
H        3.720862611     -2.788601792     -1.829720211
C        0.230950066     -0.782545460     -2.211217642
C       -0.875084084     -1.115131247     -3.011471680
C        0.184874230     -1.115131247     -0.846814812
C       -1.986542739     -1.756750516     -2.467589050
C       -0.926299579     -1.756750516     -0.302350466
C       -2.017438313     -2.080654196     -1.110258876
H       -0.861411054     -0.867751266     -4.068392017
H        1.028149865     -0.867751266     -0.209512880
H       -2.830111120     -2.004074338     -3.105735107
H       -0.939485321     -2.004074338      0.755318736
H       -2.883304756     -2.580562844     -0.686273741
C        1.586357512      1.565090248     -2.211218000
H        2.464704512      2.114667194     -2.570361276
H        0.708010512      2.114667194     -2.570361276
C        1.586357512      1.563147457     -0.672230167
H        2.469534512      1.047881650     -0.281077795
H        0.703180512      1.047881650     -0.281077795
H        1.586357512      2.584862197     -0.278121876
